testcases/gridlabd/TMP0009/TMP0009_glmfile_VVO.glm
//*********************************************
// Capacitor Objects
//*********************************************
object capacitor {
	name N_1800021666_Cap;
	phases ABC;
	pt_phase ABC;
	parent N_1800021666;
	phases_connected ABC;
	control MANUAL;
	voltage_set_high 0.0;
	voltage_set_low 0.0;
	capacitor_A 0.30 MVAr;
	capacitor_B 0.30 MVAr;
	capacitor_C 0.30 MVAr;
	control_level INDIVIDUAL;
	time_delay 0.0;
	dwell_time 0.0;
	switchA CLOSED;
	switchB CLOSED;
	switchC CLOSED;
	nominal_voltage 12000.0;
}

object capacitor {
	name N_1800021727_Cap;
	phases ABC;
	pt_phase ABC;
	parent N_1800021727;
	phases_connected ABC;
	control MANUAL;
	voltage_set_high 0.0;
	voltage_set_low 0.0;
	capacitor_A 0.30 MVAr;
	capacitor_B 0.30 MVAr;
	capacitor_C 0.30 MVAr;
	control_level INDIVIDUAL;
	time_delay 0.0;
	dwell_time 0.0;
	switchA CLOSED;
	switchB CLOSED;
	switchC CLOSED;
	nominal_voltage 12000.0;
}

object capacitor {
	name N_1800039588_Cap;
	phases ABC;
	pt_phase ABC;
	parent N_1800039588;
	phases_connected ABC;
	control MANUAL;
	voltage_set_high 0.0;
	voltage_set_low 0.0;
	capacitor_A 0.13333 MVAr;
	capacitor_B 0.13333 MVAr;
	capacitor_C 0.13333 MVAr;
	control_level INDIVIDUAL;
	time_delay 0.0;
	dwell_time 0.0;
	switchA CLOSED;
	switchB CLOSED;
	switchC CLOSED;
	nominal_voltage 11997.339;
}

object capacitor {
	name N_1800032683_Cap;
	phases ABC;
	pt_phase ABC;
	parent N_1800032683;
	phases_connected ABC;
	control MANUAL;
	voltage_set_high 0.0;
	voltage_set_low 0.0;
	capacitor_A 0.2 MVAr;
	capacitor_B 0.2 MVAr;
	capacitor_C 0.2 MVAr;
	control_level INDIVIDUAL;
	time_delay 0.0;
	dwell_time 0.0;
	switchA CLOSED;
	switchB CLOSED;
	switchC CLOSED;
	nominal_voltage 12000.0;
}

object capacitor {
	name N_1800019249_Cap;
	phases ABC;
	pt_phase ABC;
	parent N_1800019249;
	phases_connected ABC;
	control MANUAL;
	voltage_set_high 0.0;
	voltage_set_low 0.0;
	capacitor_A 0.2 MVAr;
	capacitor_B 0.2 MVAr;
	capacitor_C 0.2 MVAr;
	control_level INDIVIDUAL;
	time_delay 0.0;
	dwell_time 0.0;
	switchA CLOSED;
	switchB CLOSED;
	switchC CLOSED;
	nominal_voltage 12000.0;
}

object capacitor {
	name N_1800081712_Cap;
	phases ABC;
	pt_phase ABC;
	parent N_1800081712;
	phases_connected ABC;
	control MANUAL;
	voltage_set_high 0.0;
	voltage_set_low 0.0;
	capacitor_A 0.4 MVAr;
	capacitor_B 0.4 MVAr;
	capacitor_C 0.4 MVAr;
	control_level INDIVIDUAL;
	time_delay 0.0;
	dwell_time 0.0;
	switchA CLOSED;
	switchB CLOSED;
	switchC CLOSED;
	nominal_voltage 11997.339;
}

object capacitor {
	name N_1800037033_Cap;
	phases ABC;
	pt_phase ABC;
	parent N_1800037033;
	phases_connected ABC;
	control MANUAL;
	voltage_set_high 0.0;
	voltage_set_low 0.0;
	capacitor_A 0.30 MVAr;
	capacitor_B 0.30 MVAr;
	capacitor_C 0.30 MVAr;
	control_level INDIVIDUAL;
	time_delay 0.0;
	dwell_time 0.0;
	switchA CLOSED;
	switchB CLOSED;
	switchC CLOSED;
	nominal_voltage 11997.339;
}

object capacitor {
	name N_1800081710_Cap;
	phases ABC;
	pt_phase ABC;
	parent N_1800081710;
	phases_connected ABC;
	control MANUAL;
	voltage_set_high 0.0;
	voltage_set_low 0.0;
	capacitor_A 0.30 MVAr;
	capacitor_B 0.30 MVAr;
	capacitor_C 0.30 MVAr;
	control_level INDIVIDUAL;
	time_delay 0.0;
	dwell_time 0.0;
	switchA CLOSED;
	switchB CLOSED;
	switchC CLOSED;
	nominal_voltage 12000.0;
}

object capacitor {
	name N_1800000330_Cap;
	phases ABC;
	pt_phase ABC;
	parent N_1800000330;
	phases_connected ABC;
	control MANUAL;
	voltage_set_high 0.0;
	voltage_set_low 0.0;
	capacitor_A 0.2 MVAr;
	capacitor_B 0.2 MVAr;
	capacitor_C 0.2 MVAr;
	control_level INDIVIDUAL;
	time_delay 0.0;
	dwell_time 0.0;
	switchA CLOSED;
	switchB CLOSED;
	switchC CLOSED;
	nominal_voltage 11997.339;
}

object capacitor {
	name N_1800023754_Cap;
	phases ABC;
	pt_phase ABC;
	parent N_1800023754;
	phases_connected ABC;
	control MANUAL;
	voltage_set_high 0.0;
	voltage_set_low 0.0;
	capacitor_A 0.2 MVAr;
	capacitor_B 0.2 MVAr;
	capacitor_C 0.2 MVAr;
	control_level INDIVIDUAL;
	time_delay 0.0;
	dwell_time 0.0;
	switchA CLOSED;
	switchB CLOSED;
	switchC CLOSED;
	nominal_voltage 12000.0;
}

object capacitor {
	name N_1800039587_Cap;
	phases ABC;
	pt_phase ABC;
	parent N_1800039587;
	phases_connected ABC;
	control MANUAL;
	voltage_set_high 0.0;
	voltage_set_low 0.0;
	capacitor_A 0.2 MVAr;
	capacitor_B 0.2 MVAr;
	capacitor_C 0.2 MVAr;
	control_level INDIVIDUAL;
	time_delay 0.0;
	dwell_time 0.0;
	switchA CLOSED;
	switchB CLOSED;
	switchC CLOSED;
	nominal_voltage 11997.339;
}

object capacitor {
	name N_1800022214_Cap;
	phases ABC;
	pt_phase ABC;
	parent N_1800022214;
	phases_connected ABC;
	control MANUAL;
	voltage_set_high 0.0;
	voltage_set_low 0.0;
	capacitor_A 0.2 MVAr;
	capacitor_B 0.2 MVAr;
	capacitor_C 0.2 MVAr;
	control_level INDIVIDUAL;
	time_delay 0.0;
	dwell_time 0.0;
	switchA CLOSED;
	switchB CLOSED;
	switchC CLOSED;
	nominal_voltage 12000.0;
}

object capacitor {
	name N_1800038296_Cap;
	phases ABC;
	pt_phase ABC;
	parent N_1800038296;
	phases_connected ABC;
	control MANUAL;
	voltage_set_high 0.0;
	voltage_set_low 0.0;
	capacitor_A 0.2 MVAr;
	capacitor_B 0.2 MVAr;
	capacitor_C 0.2 MVAr;
	control_level INDIVIDUAL;
	time_delay 0.0;
	dwell_time 0.0;
	switchA CLOSED;
	switchB CLOSED;
	switchC CLOSED;
	nominal_voltage 12000.0;
}

object capacitor {
	name N_1800009271_Cap;
	phases ABC;
	pt_phase ABC;
	parent N_1800009271;
	phases_connected ABC;
	control MANUAL;
	voltage_set_high 0.0;
	voltage_set_low 0.0;
	capacitor_A 0.30 MVAr;
	capacitor_B 0.30 MVAr;
	capacitor_C 0.30 MVAr;
	control_level INDIVIDUAL;
	time_delay 0.0;
	dwell_time 0.0;
	switchA CLOSED;
	switchB CLOSED;
	switchC CLOSED;
	nominal_voltage 11997.339;
}

object capacitor {
	name N_1800021728_Cap;
	phases ABC;
	pt_phase ABC;
	parent N_1800021728;
	phases_connected ABC;
	control MANUAL;
	voltage_set_high 0.0;
	voltage_set_low 0.0;
	capacitor_A 0.2 MVAr;
	capacitor_B 0.2 MVAr;
	capacitor_C 0.2 MVAr;
	control_level INDIVIDUAL;
	time_delay 0.0;
	dwell_time 0.0;
	switchA CLOSED;
	switchB CLOSED;
	switchC CLOSED;
	nominal_voltage 12000.0;
}

object capacitor {
	name N_1800009260_Cap;
	phases ABC;
	pt_phase ABC;
	parent N_1800009260;
	phases_connected ABC;
	control MANUAL;
	voltage_set_high 0.0;
	voltage_set_low 0.0;
	capacitor_A 0.4 MVAr;
	capacitor_B 0.4 MVAr;
	capacitor_C 0.4 MVAr;
	control_level INDIVIDUAL;
	time_delay 0.0;
	dwell_time 0.0;
	switchA CLOSED;
	switchB CLOSED;
	switchC CLOSED;
	nominal_voltage 11997.339;
}

object capacitor {
	name N_1800011111_Cap;
	phases ABC;
	pt_phase ABC;
	parent N_1800011111;
	phases_connected ABC;
	control MANUAL;
	voltage_set_high 0.0;
	voltage_set_low 0.0;
	capacitor_A 0.30 MVAr;
	capacitor_B 0.30 MVAr;
	capacitor_C 0.30 MVAr;
	control_level INDIVIDUAL;
	time_delay 0.0;
	dwell_time 0.0;
	switchA CLOSED;
	switchB CLOSED;
	switchC CLOSED;
	nominal_voltage 11997.339;
}

//*********************************************
// Regulator Objects
//*********************************************
